Circuit: * C:\Users\hites\Desktop\Github_Ideas\Boost converter\Boost-converter\Components_Selection\LTSpice\Capacitor_explanation.asc

C10: Increased Cpar to 4.7e-011
C9: Increased Cpar to 4.7e-011
C6: Increased Cpar to 4.7e-011
C4: Increased Cpar to 4.7e-011
.OP point found by inspection.

Date: Wed Aug 24 22:32:21 2022
Total elapsed time: 0.176 seconds.

tnom = 27
temp = 27
method = modified trap
totiter = 2106
traniter = 2106
tranpoints = 1054
accept = 1052
rejected = 2
matrix size = 24
fillins = 0
solver = Normal
Matrix Compiler1: 506 bytes object code size  0.3/0.2/[0.1]
Matrix Compiler2: 1.42 KB object code size  0.2/0.4/[0.2]

