Circuit: * C:\Users\hites\Desktop\Github_Ideas\Boost converter\Boost-converter\Switching_behavior\LTspice\RLC_Step.asc

WARNING: Node NC_02 is floating.
WARNING: Node NC_04 is floating.

WARNING: Less than two connections to node NC_02.  This node is used by R:X1:3.
WARNING: Less than two connections to node NC_04.  This node is used by R:X3:3.
Direct Newton iteration for .op point succeeded.
Heightened Def Con from 2.92969e-013 to 2.00029e-009

Date: Sat Aug 20 22:48:15 2022
Total elapsed time: 1.335 seconds.

tnom = 27
temp = 27
method = modified trap
totiter = 30386
traniter = 30353
tranpoints = 13774
accept = 9615
rejected = 4160
matrix size = 126
fillins = 250
solver = Normal
Thread vector: 47.7/16.1[3] 1.9/1.8[1] 3.9/2.4[3] 0.6/3.0[1]  2592/500
Matrix Compiler1: 22.99 KB object code size  10.0/6.3/[1.1]
Matrix Compiler2: 14.24 KB object code size  3.5/1.6/[0.8]

