Circuit: * C:\Users\hites\Desktop\Github_Ideas\Boost converter\Boost-converter\Switching_behavior\LTspice\RLC_Step.asc

WARNING: Node NC_02 is floating.
WARNING: Node NC_04 is floating.

WARNING: Less than two connections to node NC_02.  This node is used by R:X1:3.
WARNING: Less than two connections to node NC_04.  This node is used by R:X3:3.
Direct Newton iteration for .op point succeeded.
Heightened Def Con from 2.92969e-013 to 2.00029e-009

Date: Sat Aug 20 23:33:12 2022
Total elapsed time: 1.633 seconds.

tnom = 27
temp = 27
method = modified trap
totiter = 38909
traniter = 38876
tranpoints = 17986
accept = 12200
rejected = 5787
matrix size = 126
fillins = 250
solver = Normal
Thread vector: 63.1/24.0[3] 3.0/2.4[3] 6.4/4.1[3] 0.8/1.7[1]  2592/500
Matrix Compiler1: 22.99 KB object code size  5.4/3.1/[1.8]
Matrix Compiler2: 14.24 KB object code size  1.8/2.5/[1.2]

